Version 4
SHEET 1 880 680
WIRE 192 -144 -304 -144
WIRE -304 -96 -304 -144
WIRE -16 -16 -176 -16
WIRE -16 32 -16 -16
WIRE -304 48 -304 -16
WIRE -16 160 -16 112
WIRE 96 160 -16 160
WIRE -176 176 -176 -16
WIRE -16 208 -16 160
WIRE 192 208 192 -144
WIRE 96 256 96 160
WIRE 96 256 48 256
WIRE 128 256 96 256
WIRE -176 304 -176 256
WIRE 192 352 192 304
WIRE -16 464 -16 304
WIRE 192 480 192 432
FLAG -16 464 0
FLAG -304 48 0
FLAG -176 304 0
FLAG 192 480 0
SYMBOL voltage -304 -112 M0
WINDOW 123 0 0 Left 0
WINDOW 39 0 0 Left 0
SYMATTR InstName V1
SYMATTR Value PULSE(0 27 0 100m 1n 200m 400m)
SYMBOL voltage -176 160 R0
WINDOW 123 0 0 Left 0
WINDOW 39 0 0 Left 0
SYMATTR InstName V2
SYMATTR Value 5
SYMBOL res -32 16 R0
SYMATTR InstName R1
SYMATTR Value 2700
SYMBOL npn 128 208 R0
SYMATTR InstName Q1
SYMATTR Value 2N3904
SYMBOL res 176 336 R0
SYMATTR InstName R3
SYMATTR Value 10
SYMBOL npn 48 208 M0
SYMATTR InstName Q2
SYMATTR Value 2N3904
TEXT -288 -272 Left 2 !.tran 100m\n.temp -10 5 20 35 50 65 80 95 110
